/PREP7  
ET,1,BEAM188
MPTEMP,,,,,,,,  
MPTEMP,1,0  
MPDATA,EX,1,, 1.00000e+03   
MPDATA,PRXY,1,,0.3  
SECTYPE,   1, BEAM, RECT, , 0
SECOFFSET, CENT 
SECDATA, 6.00000e+00, 9.00000e+00,0,0,0,0,0,0,0,0,0,0
N,   1,0.0000e+00,0.0000e+00
N,   2,2.0000e+00,0.0000e+00
N,   3,4.0000e+00,0.0000e+00
N,   4,6.0000e+00,0.0000e+00
N,   5,8.0000e+00,0.0000e+00
N,   6,1.0000e+01,0.0000e+00
N,   7,1.2000e+01,0.0000e+00
N,   8,1.4000e+01,0.0000e+00
N,   9,1.6000e+01,0.0000e+00
N,  10,1.8000e+01,0.0000e+00
N,  11,2.0000e+01,0.0000e+00
N,  12,2.2000e+01,0.0000e+00
N,  13,2.4000e+01,0.0000e+00
N,  14,2.6000e+01,0.0000e+00
N,  15,2.8000e+01,0.0000e+00
N,  16,3.0000e+01,0.0000e+00
N,  17,3.2000e+01,0.0000e+00
N,  18,3.4000e+01,0.0000e+00
N,  19,3.6000e+01,0.0000e+00
N,  20,3.8000e+01,0.0000e+00
! ... 32 like lines cut
EN,   1,    1,    2,   52
EN,   2,    2,    3,   52
EN,   3,    3,    4,   52
EN,   4,    4,    5,   52
EN,   5,    5,    6,   52
EN,   6,    6,    7,   52
EN,   7,    7,    8,   52
EN,   8,    8,    9,   52
EN,   9,    9,   10,   52
EN,  10,   10,   11,   52
EN,  11,   11,   12,   52
EN,  12,   12,   13,   52
EN,  13,   13,   14,   52
EN,  14,   14,   15,   52
EN,  15,   15,   16,   52
EN,  16,   16,   17,   52
EN,  17,   17,   18,   52
EN,  18,   18,   19,   52
EN,  19,   19,   20,   52
EN,  20,   20,   21,   52
! ... 30 like lines cut
D,     1,UX,0,,     1,1
D,     1,UY,0,,     1,1
D,     1,UZ,0,,     1,1
D,     1,ROTX,0,,     1,1
D,     1,ROTY,0,,     1,1
D,     1,ROTZ,0,,     1,1
D,     1,UZ,0,,     1,1
D,     1,ROTX,0,,     1,1
D,     1,ROTY,0,,     1,1
F,    51,FY,5.0000e+01
F,    51,FZ,5.0000e+01
F,    51,MX,-3.5000e+03
LSWRITE,1
FINISH
/SOLU
NSUBST,100,100,100  
OUTRES,ERASE
OUTRES,ALL,ALL  
TIME,1 
NLGEOM,1 
/SOLVE
solve
FINISH
