/PREP7
ANTYPE,STATIC
ET,1,PLANE182
KEYOPT,1,1,0
KEYOPT,1,3,3
KEYOPT,1,6,0
R,1,5.000e+00,
MP,EX,1,2.1000e+05
MP,PRXY,1, 0.300
CSYS,0
N,   1,0.0000e+00,0.0000e+00,0
N,   2,0.0000e+00,3.1250e+00,0
N,   3,0.0000e+00,6.2500e+00,0
N,   4,0.0000e+00,9.3750e+00,0
N,   5,0.0000e+00,1.2500e+01,0
N,   6,0.0000e+00,1.5625e+01,0
N,   7,0.0000e+00,1.8750e+01,0
N,   8,0.0000e+00,2.1875e+01,0
N,   9,0.0000e+00,2.5000e+01,0
N,  10,0.0000e+00,2.8125e+01,0
N,  11,0.0000e+00,3.1250e+01,0
N,  12,0.0000e+00,3.4375e+01,0
N,  13,0.0000e+00,3.7500e+01,0
N,  14,0.0000e+00,4.0625e+01,0
N,  15,0.0000e+00,4.3750e+01,0
N,  16,0.0000e+00,4.6875e+01,0
N,  17,0.0000e+00,5.0000e+01,0
N,  18,5.0000e+00,0.0000e+00,0
N,  19,5.0000e+00,3.1250e+00,0
N,  20,5.0000e+00,6.2500e+00,0
! ... 677 like lines cut
MAT,1
EN,   1,    1,   18,   19,    2
EN,   2,    2,   19,   20,    3
EN,   3,    3,   20,   21,    4
EN,   4,    4,   21,   22,    5
EN,   5,    5,   22,   23,    6
EN,   6,    6,   23,   24,    7
EN,   7,    7,   24,   25,    8
EN,   8,    8,   25,   26,    9
EN,   9,    9,   26,   27,   10
EN,  10,   10,   27,   28,   11
EN,  11,   11,   28,   29,   12
EN,  12,   12,   29,   30,   13
EN,  13,   13,   30,   31,   14
EN,  14,   14,   31,   32,   15
EN,  15,   15,   32,   33,   16
EN,  16,   16,   33,   34,   17
EN,  17,   18,   35,   36,   19
EN,  18,   19,   36,   37,   20
EN,  19,   20,   37,   38,   21
EN,  20,   21,   38,   39,   22
! ... 620 like lines cut
D,     1,UX,0,,     1,1
D,     1,UY,0,,     1,1
D,     2,UX,0,,     2,1
D,     2,UY,0,,     2,1
D,     3,UX,0,,     3,1
D,     3,UY,0,,     3,1
D,     4,UX,0,,     4,1
D,     4,UY,0,,     4,1
D,     5,UX,0,,     5,1
D,     5,UY,0,,     5,1
D,     6,UX,0,,     6,1
D,     6,UY,0,,     6,1
D,     7,UX,0,,     7,1
D,     7,UY,0,,     7,1
D,     8,UX,0,,     8,1
D,     8,UY,0,,     8,1
D,     9,UX,0,,     9,1
D,     9,UY,0,,     9,1
D,    10,UX,0,,    10,1
D,    10,UY,0,,    10,1
D,    11,UX,0,,    11,1
D,    11,UY,0,,    11,1
D,    12,UX,0,,    12,1
D,    12,UY,0,,    12,1
D,    13,UX,0,,    13,1
D,    13,UY,0,,    13,1
D,    14,UX,0,,    14,1
D,    14,UY,0,,    14,1
D,    15,UX,0,,    15,1
D,    15,UY,0,,    15,1
D,    16,UX,0,,    16,1
D,    16,UY,0,,    16,1
D,    17,UX,0,,    17,1
D,    17,UY,0,,    17,1
F,   697,FY,-3.1250e+01
F,   696,FY,-6.2500e+01
F,   695,FY,-6.2500e+01
F,   694,FY,-6.2500e+01
F,   693,FY,-6.2500e+01
F,   692,FY,-6.2500e+01
F,   691,FY,-6.2500e+01
F,   690,FY,-6.2500e+01
F,   689,FY,-6.2500e+01
F,   688,FY,-6.2500e+01
F,   687,FY,-6.2500e+01
F,   686,FY,-6.2500e+01
F,   685,FY,-6.2500e+01
F,   684,FY,-6.2500e+01
F,   683,FY,-6.2500e+01
F,   682,FY,-6.2500e+01
F,   681,FY,-3.1250e+01
LSWRITE,1
FINISH
/SOLU
SOLVE
FINISH
