/PREP7
ANTYPE,STATIC
ET,1,PLANE182
KEYOPT,1,1,0
KEYOPT,1,3,3
KEYOPT,1,6,0
R,1,5, 
MP,EX,1,1.0000e+03
MP,PRXY,1, 0.300
CSYS,0
N,   1,0.0000e+00,0.0000e+00,0.0000e+00
N,   2,0.0000e+00,2.5000e+00,0.0000e+00
N,   3,0.0000e+00,5.0000e+00,0.0000e+00
N,   4,0.0000e+00,7.5000e+00,0.0000e+00
N,   5,0.0000e+00,1.0000e+01,0.0000e+00
N,   6,0.0000e+00,1.2500e+01,0.0000e+00
N,   7,0.0000e+00,1.5000e+01,0.0000e+00
N,   8,0.0000e+00,1.7500e+01,0.0000e+00
N,   9,0.0000e+00,2.0000e+01,0.0000e+00
N,  10,6.6667e+00,0.0000e+00,0.0000e+00
N,  11,6.6667e+00,2.5000e+00,0.0000e+00
N,  12,6.6667e+00,5.0000e+00,0.0000e+00
N,  13,6.6667e+00,7.5000e+00,0.0000e+00
N,  14,6.6667e+00,1.0000e+01,0.0000e+00
N,  15,6.6667e+00,1.2500e+01,0.0000e+00
N,  16,6.6667e+00,1.5000e+01,0.0000e+00
N,  17,6.6667e+00,1.7500e+01,0.0000e+00
N,  18,6.6667e+00,2.0000e+01,0.0000e+00
N,  19,1.3333e+01,0.0000e+00,0.0000e+00
N,  20,1.3333e+01,2.5000e+00,0.0000e+00
! ... 529 like lines cut
MAT,1
EN,   1,    1,   10,   11,    2
EN,   2,    2,   11,   12,    3
EN,   3,    3,   12,   13,    4
EN,   4,    4,   13,   14,    5
EN,   5,    5,   14,   15,    6
EN,   6,    6,   15,   16,    7
EN,   7,    7,   16,   17,    8
EN,   8,    8,   17,   18,    9
EN,   9,   10,   19,   20,   11
EN,  10,   11,   20,   21,   12
EN,  11,   12,   21,   22,   13
EN,  12,   13,   22,   23,   14
EN,  13,   14,   23,   24,   15
EN,  14,   15,   24,   25,   16
EN,  15,   16,   25,   26,   17
EN,  16,   17,   26,   27,   18
EN,  17,   19,   28,   29,   20
EN,  18,   20,   29,   30,   21
EN,  19,   21,   30,   31,   22
EN,  20,   22,   31,   32,   23
! ... 460 like lines cut
D,     1,UX,0,,     1,1
D,     1,UY,0,,     1,1
D,     2,UX,0,,     2,1
D,     2,UY,0,,     2,1
D,     3,UX,0,,     3,1
D,     3,UY,0,,     3,1
D,     4,UX,0,,     4,1
D,     4,UY,0,,     4,1
D,     5,UX,0,,     5,1
D,     5,UY,0,,     5,1
D,     6,UX,0,,     6,1
D,     6,UY,0,,     6,1
D,     7,UX,0,,     7,1
D,     7,UY,0,,     7,1
D,     8,UX,0,,     8,1
D,     8,UY,0,,     8,1
D,     9,UX,0,,     9,1
D,     9,UY,0,,     9,1
F,   549,FY,-6.2500e+00
F,   548,FY,-1.2500e+01
F,   547,FY,-1.2500e+01
F,   546,FY,-1.2500e+01
F,   545,FY,-1.2500e+01
F,   544,FY,-1.2500e+01
F,   543,FY,-1.2500e+01
F,   542,FY,-1.2500e+01
F,   541,FY,-6.2500e+00
FINISH
/SOL
ANTYPE,0
NLGEOM,1
NSUBST,200,200,200 
OUTRES,ERASE
OUTRES,ALL,ALL  
TIME,1 
SOLVE 
