/PREP7  
ET,1,BEAM188
MPTEMP,,,,,,,,  
MPTEMP,1,0  
MPDATA,EX,1,, 2.00000e+05   
MPDATA,PRXY,1,,0.3  
SECTYPE,   1, BEAM, RECT, , 0
SECOFFSET, CENT 
SECDATA, 1.00000e+00, 2.00000e+01,0,0,0,0,0,0,0,0,0,0
N,   1,5.0000e+01,0.0000e+00
N,   2,4.9905e+01,3.0780e+00
N,   3,4.9621e+01,6.1444e+00
N,   4,4.9149e+01,9.1875e+00
N,   5,4.8490e+01,1.2196e+01
N,   6,4.7647e+01,1.5158e+01
N,   7,4.6624e+01,1.8062e+01
N,   8,4.5423e+01,2.0898e+01
N,   9,4.4051e+01,2.3655e+01
N,  10,4.2511e+01,2.6322e+01
N,  11,4.0810e+01,2.8889e+01
N,  12,3.8954e+01,3.1346e+01
N,  13,3.6950e+01,3.3685e+01
N,  14,3.4807e+01,3.5896e+01
N,  15,3.2531e+01,3.7970e+01
N,  16,3.0132e+01,3.9901e+01
N,  17,2.7618e+01,4.1680e+01
N,  18,2.5000e+01,4.3301e+01
N,  19,2.2287e+01,4.4758e+01
N,  20,1.9489e+01,4.6045e+01
! ... 32 like lines cut
EN,   1,    1,    2
EN,   2,    2,    3
EN,   3,    3,    4
EN,   4,    4,    5
EN,   5,    5,    6
EN,   6,    6,    7
EN,   7,    7,    8
EN,   8,    8,    9
EN,   9,    9,   10
EN,  10,   10,   11
EN,  11,   11,   12
EN,  12,   12,   13
EN,  13,   13,   14
EN,  14,   14,   15
EN,  15,   15,   16
EN,  16,   16,   17
EN,  17,   17,   18
EN,  18,   18,   19
EN,  19,   19,   20
EN,  20,   20,   21
! ... 31 like lines cut
D,     1,UX,0,,     1,1
D,     1,UY,0,,     1,1
D,    52,UY,0,,    52,1
D,     1,UZ,0,,     1,1
D,     1,ROTX,0,,     1,1
D,     1,ROTY,0,,     1,1
F,    52,FX,3.0000e+02
LSWRITE,1
FINISH
/SOLU
NSUBST,100,100,100  
OUTRES,ERASE
OUTRES,ALL,ALL  
TIME,1 
NLGEOM,1 
/SOLVE
SOLVE  
FINISH
