/PREP7
ANTYPE,STATIC
ET,1,BEAM188
KEYOPT,1,1,0
KEYOPT,1,2,0
KEYOPT,1,3,0
KEYOPT,1,4,0
KEYOPT,1,6,0
KEYOPT,1,7,0
KEYOPT,1,9,0
KEYOPT,1,11,0
KEYOPT,1,12,0 
KEYOPT,1,15,0 
SECTYPE,   1, BEAM, ASEC, , 0 
SECOFFSET, CENT 
SECDATA,100,0.001,0,0.001,0.001,0.001,0,0,0,0,0,0
MP,EX,1,2.0000e+005
MP,PRXY,1, 0.300
CSYS,0
N,   1,0.0000e+00,0.0000e+00,0.0000e+00,0
N,   2,2.0000e+02,0.0000e+00,0.0000e+00,0
N,   3,2.0000e+02,2.0000e+02,0.0000e+00,0
N,   4,0.0000e+00,2.0000e+02,0.0000e+00,0
N,   5,0.0000e+00,0.0000e+00,2.0000e+02,0
N,   6,2.0000e+02,0.0000e+00,2.0000e+02,0
N,   7,2.0000e+02,2.0000e+02,2.0000e+02,0
N,   8,0.0000e+00,2.0000e+02,2.0000e+02,0
N,   9,0.0000e+00,0.0000e+00,4.0000e+02,0
N,  10,2.0000e+02,0.0000e+00,4.0000e+02,0
N,  11,2.0000e+02,2.0000e+02,4.0000e+02,0
N,  12,0.0000e+00,2.0000e+02,4.0000e+02,0
N,  13,0.0000e+00,0.0000e+00,6.0000e+02,0
N,  14,2.0000e+02,0.0000e+00,6.0000e+02,0
N,  15,2.0000e+02,2.0000e+02,6.0000e+02,0
N,  16,0.0000e+00,2.0000e+02,6.0000e+02,0
N,  17,0.0000e+00,0.0000e+00,8.0000e+02,0
N,  18,2.0000e+02,0.0000e+00,8.0000e+02,0
N,  19,2.0000e+02,2.0000e+02,8.0000e+02,0
N,  20,0.0000e+00,2.0000e+02,8.0000e+02,0
! ... 56 like lines cut
MAT,1
EN,   1,    1,    5
EN,   2,    2,    5
EN,   3,    2,    6
EN,   4,    2,    7
EN,   5,    3,    7
EN,   6,    4,    5
EN,   7,    4,    7
EN,   8,    4,    8
EN,   9,    5,    6
EN,  10,    5,    7
EN,  11,    5,    8
EN,  12,    6,    7
EN,  13,    7,    8
EN,  14,    5,    9
EN,  15,    6,    9
EN,  16,    6,   10
EN,  17,    6,   11
EN,  18,    7,   11
EN,  19,    8,    9
EN,  20,    8,   11
! ... 214 like lines cut
D,     1,UX,0,,     1,1
D,     1,UY,0,,     1,1
D,     1,UZ,0,,     1,1
D,     2,UX,0,,     2,1
D,     2,UY,0,,     2,1
D,     2,UZ,0,,     2,1
D,     3,UX,0,,     3,1
D,     3,UY,0,,     3,1
D,     3,UZ,0,,     3,1
D,     4,UX,0,,     4,1
D,     4,UY,0,,     4,1
D,     4,UZ,0,,     4,1
F,    73,FY,5.0000e+04
F,    74,FY,5.0000e+04
F,    75,FY,5.0000e+04
F,    76,FY,5.0000e+04
F,    73,FZ,-5.0000e+04
F,    74,FZ,-5.0000e+04
F,    75,FZ,-5.0000e+04
F,    76,FZ,-5.0000e+04
F,    33,FX,1.1250e+05
F,    34,FX,1.1250e+05
F,    35,FX,1.1250e+05
F,    36,FX,1.1250e+05
FINISH  
/SOLU   
ANTYPE,0
ANTYPE,0
NLGEOM,1
NSUBST,50,50,50 
OUTRES,ERASE
OUTRES,ALL,1
TIME,1  
FINISH  
/SOLU   
/STATUS,SOLU
SOLVE   
